/*---------------------------------------------------------------------------*\
| =========                 |                                                 |
| \\      /  F ield         | OpenFOAM: The Open Source CFD Toolbox           |
|  \\    /   O peration     | Version:  1.4                                   |
|   \\  /    A nd           | Web:      http://www.openfoam.org               |
|    \\/     M anipulation  |                                                 |
\*---------------------------------------------------------------------------*/


FoamFile
{
    version         2.0;
    format          ascii;

    root            "";
    case            "";
    instance        "";
    local           "";

    class           dictionary;
    object          couplingProperties;
}

// * * * * * * * * * * * * * * * * * * * * * * * * * * * * * * * * * * * * * //

//===========================================================================//
// sub-models & settings
solveFlow   true;

modelType B; // A or B

couplingInterval 500;

voidFractionModel divided;

locateModel engine;

meshMotionModel noMeshMotion;

IOModel basicIO;

probeModel off;

dataExchangeModel twoWayMPI;

averagingModel dense;//dilute;//

clockModel off;//standardClock;//

smoothingModel off;

forceModels
(
    KochHillDrag
    scalarGeneralExchange
    Archimedes
);

momCoupleModels
(
    implicitCouple
);

//turbulenceModelType RASProperties;//LESProperties;//OFversion24x
turbulenceModelType turbulenceProperties;//OFversion30x

//===========================================================================//
// sub-model properties
particleProbeProps
{
    particleIDsToSample (0 0);
    verboseToFile;      //main switch
    printEvery 20;      //print every this many CFD time steps
    sampleAll;          //Activate sampling for all particles
    probeDebug;         //probes additional fields
    includePosition;    //will include particle position in the output file
    writePrecision 4;   //number of significant digits to print
}

scalarGeneralExchangeProps
{
/*    verbose                 true;*/
    tempFieldName           "T";
    partTempName            "Temp";
    partHeatFluxName        "convectiveHeatFlux";
    lambda                  0.0256;
    Prandtl                 70.097; //WARNING: this is not a typical gas - just for testing purposes!
    useLiMason              true; 
    
    //Lists with information for each species FOR THE PARTICLES
    //MUST be in the same order as eulerian species in 'scalarTransportProperties'
    //MUST correspond to property/atom in ligghts (use 'couple/cfd/speciesConvection' to auto-generate individual fields)
    partSpeciesNames
    (
        speciesC
    );
    partSpeciesFluxNames
    (
        speciesCFlux
    );
    partSpeciesTransCoeffNames
    (
        none //speciesCTransCoeff
    );
    partSpeciesFluidNames
    (
        none //speciesCFluid
    );
    DMolecular
    (
        1e-5
    );
    //parameters for the vapor pressure model
    parameterVap
    (
        0
    );

}

implicitCoupleProps
{
    //KslLimit 0;  // source switched off!!!
}

explicitCoupleProps
{
    //fLimit (0 0 0);
}

KochHillDragProps
{
}

DiFeliceDragProps
{
    //verbose true;
}

ArchimedesProps
{
}
gradPForceProps
{
    //interpolation true;
}

viscForceProps
{
    interpolation true;
}

twoWayMPIProps
{
    maxNumberOfParticles 10000;
    liggghtsPath "../DEM/in.liggghts_run";
}

centreProps
{
}

dividedProps
{
    alphaMin 0.4;
}

engineProps
{
    treeSearch true;
}

// ************************************************************************* //
