/*--------------------------------*- C++ -*----------------------------------*\
| =========                 |                                                 |
| \\      /  F ield         | OpenFOAM: The Open Source CFD Toolbox           |
|  \\    /   O peration     | Version:  1.6                                   |
|   \\  /    A nd           | Web:      www.OpenFOAM.org                      |
|    \\/     M anipulation  |                                                 |
\*---------------------------------------------------------------------------*/
FoamFile
{
    version     2.0;
    format      ascii;
    class       dictionary;
    location    "system";
    object      controlDict;
}
// * * * * * * * * * * * * * * * * * * * * * * * * * * * * * * * * * * * * * //

application     cfdemSolverPisoScalar;

startFrom       startTime;

startTime       0;

stopAt          endTime;

endTime         1.5;

deltaT          0.005;

writeControl    adjustableRunTime;

writeInterval   0.1;

purgeWrite      0;

writeFormat     ascii;

writePrecision  6;

writeCompression uncompressed;

timeFormat      general;

timePrecision   6;

runTimeModifiable yes;

adjustTimeStep  no;

maxCo 0.1;

maxDeltaT       1;

//libs ( "libgroovyBC.so" );

functions
{

    probes
    {
        type        probes;
        // Where to load it from
        functionObjectLibs ( "libsampling.so" );  
        // Name of the directory for probe data
        name        probes;
        probeLocations
        (
            (0.05 0.05 -0.499)
            (0.05 0.05 1.499)
        );

        // Fields to be probed
        fields ( p T );

        // Write at same frequency as fields
        outputControl   timeStep;//outputTime;
        outputInterval  1;
    }

    volFlow_inlet
    {
        type            surfaceFieldValue;
        functionObjectLibs ("libfieldFunctionObjects.so");
        outputControl   timeStep;
        outputInterval  1;
        log             false;
        writeFields     false;
        valueOutput     false;
        regionType      patch;
        name            inlet;
        operation       sum;
        fields
        (
            phi
        );
    }

    volFlow_outlet
    {
        type            surfaceFieldValue;
        functionObjectLibs ("libfieldFunctionObjects.so");
        outputControl   timeStep;
        outputInterval  1;
        log             false;
        writeFields     false;
        valueOutput     false;
        regionType      patch;
        name            outlet;
        operation       sum;
        fields
        (
            phi
        );
    }

    volFlow_wall
    {
        type            surfaceFieldValue;
        functionObjectLibs ("libfieldFunctionObjects.so");
        outputControl   timeStep;
        outputInterval  1;
        log             false;
        writeFields     false;
        valueOutput     false;
        regionType      patch;
        name            wall;
        operation       sum;
        fields
        (
            phi
        );
    }

/*
// simpleFunctionObjects
   heatFlux
   {
     type patchHeatFlux;
     functionObjectLibs
     (
         "libsimpleFunctionObjects.so"
     );
     verbose true;
     patches
     (
         inlet
         outlet
     );
     fields    // name of temp field
     (
         T
     );
     cp 1007;       // cp in [J/(kg*K)]
     factor  1.188; // density for incomp solvers!
   }

   massFlux
   {
     type patchMassFlow;
     functionObjectLibs
     (
         "libsimpleFunctionObjects.so"
     );
     verbose true;
     patches
     (
         inlet
         outlet
     );
     factor  1.188; // density for incomp solvers!
   }

   pressureDrop
   {
     type patchAverage;
     functionObjectLibs
     (
         "libsimpleFunctionObjects.so"
     );
     verbose true;
     patches
     (
         inlet
         outlet
     );
     fields
     (
         p
     );
     factor  1;
   }

   T
   {
     type patchAverage;
     functionObjectLibs
     (
         "libsimpleFunctionObjects.so"
     );
     verbose true;
     patches
     (
         inlet
         outlet
     );
     fields    // name of temp field
     (
         T
     );
     factor  1;
   }*/
}
// ************************************************************************* //
