/*---------------------------------------------------------------------------*\
| =========                 |                                                 |
| \\      /  F ield         | OpenFOAM: The Open Source CFD Toolbox           |
|  \\    /   O peration     | Version:  1.4                                   |
|   \\  /    A nd           | Web:      http://www.openfoam.org               |
|    \\/     M anipulation  |                                                 |
\*---------------------------------------------------------------------------*/


FoamFile
{
    version         2.0;
    format          ascii;

    root            "";
    case            "";
    instance        "";
    local           "";

    class           dictionary;
    object          couplingProperties;
}

// * * * * * * * * * * * * * * * * * * * * * * * * * * * * * * * * * * * * * //

//===========================================================================//
// sub-models & settings

modelType A;

couplingInterval 10;

voidFractionModel divided; // centre; //

locateModel standard;

meshMotionModel noMeshMotion;

IOModel basicIO;

probeModel off;

dataExchangeModel oneWayVTK;

averagingModel dense;

clockModel off;

smoothingModel off;

forceModels
(
    noDrag
);

momCoupleModels
(
    off
);

//turbulenceModelType RASProperties;//OFversion24x
turbulenceModelType turbulenceProperties;//OFversion30x

//===========================================================================//
// sub-model properties

typeConcentrationProps
{
    verbose true;
    useDivided true;
    normConcentrationReference 0.07;
    typesA
    (
        1
    );

    typesB
    (
        2
    );
}

noDragProps
{
}

oneWayVTKProps
{
    DEMts 0.0001;
    relativePath "../DEM/post";
    couplingFilename "liggghts_init%4.4d.vtk";
    maxNumberOfParticles 30000;
}

centreProps
{
    alphaMin 0.10;
}

dividedProps
{
    alphaMin 0.1;
    scaleUpVol 1;
    
}


// ************************************************************************* //
