/*--------------------------------*- C++ -*----------------------------------*\
| =========                 |                                                 |
| \\      /  F ield         | OpenFOAM: The Open Source CFD Toolbox           |
|  \\    /   O peration     | Version:  1.6                                   |
|   \\  /    A nd           | Web:      http://www.OpenFOAM.org               |
|    \\/     M anipulation  |                                                 |
\*---------------------------------------------------------------------------*/
FoamFile
{
    version     2.0;
    format      ascii;
    class       volScalarField;
    object      p;
}
// * * * * * * * * * * * * * * * * * * * * * * * * * * * * * * * * * * * * * //

dimensions      [0 2 -2 0 0 0 0];

internalField   uniform 1;

boundaryField
{

    wall
    {
//        type            fixedFluxPressure;
//        phi             phi;
        type            zeroGradient;
        value           $internalField;
    }

    inlet
    {
//        type            fixedFluxPressure;
//        phi             phi;
        type            zeroGradient;
        value           $internalField;
    }
    outlet
    {
        type            fixedValue;
        value           $internalField;
    }
}

// ************************************************************************* //
